*Heading
 Plate with hole, fixed left edge, 1MPa pressure right edge
** Job name: Platewithhole_tension Model name: Model-1
** Generated by: Abaqus/CAE 6.14-1
*Preprint, echo=NO, model=NO, history=NO, contact=NO
**
** PARTS
**
*Part, name="Plate with hole"
*Node
      1, 0.0911611617,  0.108838834
      2, 0.0874999985,  0.100000001
      3, 0.0911611617, 0.0911611617
      4,  0.100000001, 0.0874999985
      5,  0.108838834, 0.0911611617
      6,  0.112499997,  0.100000001
      7,  0.108838834,  0.108838834
      8,  0.100000001,  0.112499997
      9,  0.200000003,           0.
     10,           0.,           0.
     11,  0.200000003,  0.200000003
     12,           0.,  0.200000003
     13,  0.189999998,           0.
     14,  0.180000007,           0.
     15,  0.170000002,           0.
     16,  0.159999996,           0.
     17,  0.150000006,           0.
     18,  0.140000001,           0.
     19,  0.129999995,           0.
     20,  0.119999997,           0.
** ... 505 like lines cut
*Element, type=CPS3
 1, 266, 265,  94
 2, 374, 337, 332
 3, 260, 259,  92
 4, 471, 258, 321
 5, 330, 270, 242
 6, 480, 478, 473
 7, 386, 331, 349
 8, 387, 356, 333
 9, 474, 440, 469
10, 476, 312, 471
11, 511, 345, 343
12, 373, 515, 401
*Element, type=CPS4R
 13, 147,  64,  63, 117
 14,   7,  90, 159,  89
 15,  37,  98, 140,  38
 16,  19,  18, 131, 100
 17,  97, 131,  18,  17
 18,  92, 160,   4,   3
 19,   3,  93, 163,  92
 20,  74, 126, 127,  75
 21, 187, 497, 192, 272
 22,  94, 161,   2,   1
 23, 229, 209, 153, 122
 24,  89, 166,   8,   7
 25,  55, 123, 124,  56
 26, 115,  61,  60, 114
 27,   5,  91, 164,  95
 28,  13,   9,  50, 146
 29,  13, 146, 169,  14
 30,  16,  15, 129, 130
 31, 141,  45,  44, 112
 32, 100, 103,  20,  19
** ... 455 like lines cut
*Nset, nset=Set-1, generate
   1,  525,    1
*Elset, elset=Set-1, generate
   1,  487,    1
** Section: Plate  Section
*Solid Section, elset=Set-1, material=Steel
0.001,
*End Part
**  
**
** ASSEMBLY
**
*Assembly, name=Assembly
**  
*Instance, name="Plate with hole-1", part="Plate with hole"
*End Instance
**  
*Nset, nset=_PickedSet4, internal, instance="Plate with hole-1"
 10, 12, 70, 71, 72, 73, 74, 75, 76, 77, 78, 79, 80, 81, 82, 83
 84, 85, 86, 87, 88
*Elset, elset=_PickedSet4, internal, instance="Plate with hole-1"
  20,  58,  59,  74,  77,  78,  80,  82,  83,  84,  85,  86,  87,  88,  96, 105
 106, 126, 161, 190
*Elset, elset=__PickedSurf5_S4, internal, instance="Plate with hole-1"
  15,  44,  46,  47,  48,  56,  57, 131, 147
*Elset, elset=__PickedSurf5_S2, internal, instance="Plate with hole-1"
  28,  31,  50,  52,  53,  55,  97, 101, 102, 140
*Elset, elset=__PickedSurf5_S1, internal, instance="Plate with hole-1"
 43,
*Surface, type=ELEMENT, name=_PickedSurf5, internal
__PickedSurf5_S4, S4
__PickedSurf5_S2, S2
__PickedSurf5_S1, S1
*End Assembly
** 
** MATERIALS
** 
*Material, name=Steel
*Elastic
 2e+11, 0.3
** 
** BOUNDARY CONDITIONS
** 
** Name: Fixed left edge Type: Symmetry/Antisymmetry/Encastre
*Boundary
_PickedSet4, ENCASTRE
** ----------------------------------------------------------------
** 
** STEP: Plateload
** 
*Step, name=Plateload, nlgeom=NO
Pressure added to right edge
*Static
1., 1., 1e-05, 1.
** 
** LOADS
** 
** Name: Pressure Right Edge   Type: Pressure
*Dsload
_PickedSurf5, P, -1e+06
** 
** OUTPUT REQUESTS
** 
*Restart, write, frequency=0
** 
** FIELD OUTPUT: F-Output-1
** 
*Output, field, variable=PRESELECT
** 
** HISTORY OUTPUT: H-Output-1
** 
*Output, history, variable=PRESELECT
*End Step
